data_image0
_cell_length_a       17.341
_cell_length_b       19.5238
_cell_length_c       23.1369
_cell_angle_alpha    90
_cell_angle_beta     106.089
_cell_angle_gamma    90

_symmetry_space_group_name_H-M    "P 1"
_symmetry_int_tables_number       1

loop_
  _symmetry_equiv_pos_as_xyz
  'x, y, z'

loop_
  _atom_site_label
  _atom_site_occupancy
  _atom_site_fract_x
  _atom_site_fract_y
  _atom_site_fract_z
  _atom_site_thermal_displace_type
  _atom_site_B_iso_or_equiv
  _atom_site_type_symbol
  W1       1.0000 0.18541  0.49054  0.71093  Biso   1.000  W
  W2       1.0000 0.15872  0.11295  0.64098  Biso   1.000  W
  W3       1.0000 0.50069  0.89862  0.66478  Biso   1.000  W
  W4       1.0000 0.23620  0.51298  0.85791  Biso   1.000  W
  W5       1.0000 0.88712  0.92048  0.81174  Biso   1.000  W
  W6       1.0000 0.56300  0.72769  0.83647  Biso   1.000  W
  W7       1.0000 0.89509  0.72893  0.83513  Biso   1.000  W
  W8       1.0000 0.84241  0.70411  0.68554  Biso   1.000  W
  W9       1.0000 0.42123  0.07654  0.79536  Biso   1.000  W
  W10      1.0000 0.97671  0.54665  0.70581  Biso   1.000  W
  W11      1.0000 0.44180  0.57382  0.85255  Biso   1.000  W
  W12      1.0000 0.55402  0.92114  0.81471  Biso   1.000  W
  W13      1.0000 0.02877  0.57148  0.85300  Biso   1.000  W
  W14      1.0000 0.83220  0.89768  0.66246  Biso   1.000  W
  W15      1.0000 0.00655  0.07813  0.79341  Biso   1.000  W
  W16      1.0000 0.21088  0.13609  0.78830  Biso   1.000  W
  W17      1.0000 0.20358  0.68080  0.91948  Biso   1.000  W
  W18      1.0000 0.40467  0.74162  0.91342  Biso   1.000  W
  W19      1.0000 0.36867  0.05388  0.64786  Biso   1.000  W
  W20      1.0000 0.50668  0.70656  0.68556  Biso   1.000  W
  W21      1.0000 0.96000  0.79071  0.59685  Biso   1.000  W
  W22      1.0000 0.38951  0.55155  0.70482  Biso   1.000  W
  W23      1.0000 0.29189  0.69622  0.60957  Biso   1.000  W
  W24      1.0000 0.18733  0.99202  0.88383  Biso   1.000  W
  W25      1.0000 0.39326  0.93232  0.89062  Biso   1.000  W
  W26      1.0000 0.95359  0.05499  0.64592  Biso   1.000  W
  W27      1.0000 0.07763  0.94535  0.57949  Biso   1.000  W
  W28      1.0000 0.28586  0.88635  0.58784  Biso   1.000  W
  W29      1.0000 0.08954  0.63492  0.61654  Biso   1.000  W
  W30      1.0000 0.07254  0.83612  0.90226  Biso   1.000  W
  P1       1.0000 0.35530  0.91720  0.73900  Biso   1.000  P
  P2       1.0000 0.36420  0.71020  0.76210  Biso   1.000  P
  P3       1.0000 0.12770  0.98020  0.72970  Biso   1.000  P
  P4       1.0000 0.99670  0.81300  0.75020  Biso   1.000  P
  P5       1.0000 0.14180  0.64510  0.76920  Biso   1.000  P
  Cu1      1.0000 0.76070  0.99010  0.91223  Biso   1.000  Cu
  Cu2      1.0000 0.79070  0.69051  0.95207  Biso   1.000  Cu
  Cu3      1.0000 0.70110  0.69660  0.76020  Biso   1.000  Cu
  Cu4      1.0000 0.69200  0.92780  0.73440  Biso   1.000  Cu
  C1       1.0000 0.66900  0.11260  0.85260  Biso   1.000  C
  H1       1.0000 0.62360  0.10390  0.86520  Biso   1.000  H
  C2       1.0000 0.78300  0.10860  0.83720  Biso   1.000  C
  H2       1.0000 0.83320  0.09300  0.83610  Biso   1.000  H
  C3       1.0000 0.62800  0.21820  0.80460  Biso   1.000  C
  H3       1.0000 0.57400  0.19990  0.79750  Biso   1.000  H
  H4       1.0000 0.63210  0.23560  0.76630  Biso   1.000  H
  C4       1.0000 0.63400  0.28030  0.84670  Biso   1.000  C
  C5       1.0000 0.65200  0.26300  0.91400  Biso   1.000  C
  C6       1.0000 0.62100  0.32200  0.94600  Biso   1.000  C
  C7       1.0000 0.70700  0.29600  0.89700  Biso   1.000  C
  C8       1.0000 0.73300  0.34000  0.95400  Biso   1.000  C
  C9       1.0000 0.66300  0.39060  0.94260  Biso   1.000  C
  C10      1.0000 0.65300  0.43910  0.88850  Biso   1.000  C
  H5       1.0000 0.59850  0.45680  0.87710  Biso   1.000  H
  H6       1.0000 0.66070  0.41340  0.85470  Biso   1.000  H
  C11      1.0000 0.81900  0.55360  0.91060  Biso   1.000  C
  H7       1.0000 0.87190  0.56330  0.91180  Biso   1.000  H
  C12      1.0000 0.69800  0.56420  0.91900  Biso   1.000  C
  H8       1.0000 0.65150  0.58100  0.92620  Biso   1.000  H
  C13      1.0000 0.77000  0.55470  0.75930  Biso   1.000  C
  H9       1.0000 0.82200  0.56920  0.76060  Biso   1.000  H
  C14      1.0000 0.63700  0.54940  0.75030  Biso   1.000  C
  H10      1.0000 0.58310  0.56210  0.74310  Biso   1.000  H
  C15      1.0000 0.79900  0.42910  0.76250  Biso   1.000  C
  H11      1.0000 0.85300  0.44310  0.76350  Biso   1.000  H
  H12      1.0000 0.80090  0.40510  0.79960  Biso   1.000  H
  C16      1.0000 0.76400  0.38200  0.70810  Biso   1.000  C
  H13      1.0000 0.78420  0.39520  0.67450  Biso   1.000  H
  H14      1.0000 0.70610  0.38470  0.69570  Biso   1.000  H
  C17      1.0000 0.79200  0.30900  0.72910  Biso   1.000  C
  H15      1.0000 0.79250  0.30250  0.77080  Biso   1.000  H
  H16      1.0000 0.84520  0.30040  0.72520  Biso   1.000  H
  C18      1.0000 0.73000  0.26030  0.68750  Biso   1.000  C
  H17      1.0000 0.70520  0.23080  0.71110  Biso   1.000  H
  H18      1.0000 0.68800  0.28650  0.65970  Biso   1.000  H
  C19      1.0000 0.77700  0.21800  0.65340  Biso   1.000  C
  H19      1.0000 0.82250  0.19560  0.68150  Biso   1.000  H
  H20      1.0000 0.79760  0.24700  0.62700  Biso   1.000  H
  C20      1.0000 0.71900  0.16420  0.61680  Biso   1.000  C
  H21      1.0000 0.74510  0.13700  0.59250  Biso   1.000  H
  H22      1.0000 0.67220  0.18610  0.59050  Biso   1.000  H
  C21      1.0000 0.61500  0.07110  0.69130  Biso   1.000  C
  H23      1.0000 0.56950  0.05840  0.70210  Biso   1.000  H
  C22      1.0000 0.73000  0.06400  0.68310  Biso   1.000  C
  H24      1.0000 0.78190  0.05150  0.68210  Biso   1.000  H
  C23      1.0000 0.83500  0.89100  0.01300  Biso   1.000  C
  H25      1.0000 0.85880  0.92540  0.04000  Biso   1.000  H
  C24      1.0000 0.77200  0.83960  0.93010  Biso   1.000  C
  H26      1.0000 0.74450  0.83100  0.89020  Biso   1.000  H
  C25      1.0000 0.89100  0.79220  0.07840  Biso   1.000  C
  H27      1.0000 0.86790  0.74790  0.08250  Biso   1.000  H
  H28      1.0000 0.94510  0.78460  0.07510  Biso   1.000  H
  C26      1.0000 0.89500  0.83080  0.12900  Biso   1.000  C
  H29      1.0000 0.84190  0.83540  0.13430  Biso   1.000  H
  H30      1.0000 0.91480  0.87630  0.12380  Biso   1.000  H
  C27      1.0000 0.95100  0.79770  0.18530  Biso   1.000  C
  H31      1.0000 0.00650  0.80770  0.18720  Biso   1.000  H
  H32      1.0000 0.94410  0.74830  0.18340  Biso   1.000  H
  N1       1.0000 0.73740  0.07350  0.86510  Biso   1.000  N
  N2       1.0000 0.68000  0.16430  0.81970  Biso   1.000  N
  N3       1.0000 0.75300  0.16610  0.81140  Biso   1.000  N
  N4       1.0000 0.76850  0.59930  0.92290  Biso   1.000  N
  N5       1.0000 0.78400  0.49200  0.89640  Biso   1.000  N
  N6       1.0000 0.71200  0.49960  0.90240  Biso   1.000  N
  N7       1.0000 0.70600  0.59370  0.76080  Biso   1.000  N
  N8       1.0000 0.74300  0.49260  0.75550  Biso   1.000  N
  N9       1.0000 0.66700  0.48610  0.75340  Biso   1.000  N
  N10      1.0000 0.68600  0.02830  0.70330  Biso   1.000  N
  N11      1.0000 0.69600  0.11930  0.66380  Biso   1.000  N
  N12      1.0000 0.62100  0.12790  0.66480  Biso   1.000  N
  N13      1.0000 0.78730  0.90150  0.95570  Biso   1.000  N
  N14      1.0000 0.80400  0.79030  0.97330  Biso   1.000  N
  N15      1.0000 0.84340  0.82550  0.02380  Biso   1.000  N
  Na1      1.0000 0.17140  0.80410  0.68030  Biso   1.000  Na
  Na2      1.0000 0.22390  0.82440  0.81850  Biso   1.000  Na
  O1       1.0000 0.52480  0.80310  0.68290  Biso   1.000  O
  O2       1.0000 0.09660  0.12990  0.78610  Biso   1.000  O
  O3       1.0000 0.58980  0.70360  0.76250  Biso   1.000  O
  O4       1.0000 0.31790  0.11980  0.78360  Biso   1.000  O
  O5       1.0000 0.58100  0.92180  0.73430  Biso   1.000  O
  O6       1.0000 0.57160  0.82500  0.81550  Biso   1.000  O
  O7       1.0000 0.88220  0.98560  0.66160  Biso   1.000  O
  O8       1.0000 0.47130  0.61500  0.70080  Biso   1.000  O
  O9       1.0000 0.17530  0.90310  0.58130  Biso   1.000  O
  O10      1.0000 0.94530  0.64160  0.83740  Biso   1.000  O
  O11      1.0000 0.12400  0.51530  0.85620  Biso   1.000  O
  O12      1.0000 0.31970  0.61040  0.64460  Biso   1.000  O
  O13      1.0000 0.94480  0.10370  0.71610  Biso   1.000  O
  O14      1.0000 0.80600  0.80230  0.67820  Biso   1.000  O
  O15      1.0000 0.07370  0.49510  0.71390  Biso   1.000  O
  O16      1.0000 0.81250  0.70270  0.76190  Biso   1.000  O
  O17      1.0000 0.08160  0.02690  0.85340  Biso   1.000  O
  O18      1.0000 0.02960  0.86080  0.58560  Biso   1.000  O
  O19      1.0000 0.34460  0.52950  0.85010  Biso   1.000  O
  O20      1.0000 0.06290  0.82200  0.80600  Biso   1.000  O
  O21      1.0000 0.29770  0.72460  0.91800  Biso   1.000  O
  O22      1.0000 0.18500  0.17120  0.70790  Biso   1.000  O
  O23      1.0000 0.09730  0.63700  0.89790  Biso   1.000  O
  O24      1.0000 0.45900  0.99150  0.65890  Biso   1.000  O
  O25      1.0000 0.92810  0.00540  0.79640  Biso   1.000  O
  O26      1.0000 0.00800  0.60060  0.64660  Biso   1.000  O
  O27      1.0000 0.14940  0.76660  0.91610  Biso   1.000  O
  O28      1.0000 0.21370  0.45280  0.79180  Biso   1.000  O
  O29      1.0000 0.83610  0.71160  0.88210  Biso   1.000  O
  O30      1.0000 0.96820  0.52280  0.78280  Biso   1.000  O
  O31      1.0000 0.89200  0.86140  0.61410  Biso   1.000  O
  O32      1.0000 0.80490  0.92200  0.73680  Biso   1.000  O
  O33      1.0000 0.29380  0.50990  0.71630  Biso   1.000  O
  O34      1.0000 0.26990  0.09710  0.64740  Biso   1.000  O
  O35      1.0000 0.39750  0.02070  0.85470  Biso   1.000  O
  O36      1.0000 0.82750  0.95190  0.85560  Biso   1.000  O
  O37      1.0000 0.42450  0.10280  0.71760  Biso   1.000  O
  O38      1.0000 0.89550  0.61980  0.70180  Biso   1.000  O
  O39      1.0000 0.29810  0.88260  0.68570  Biso   1.000  O
  O40      1.0000 0.50790  0.01500  0.79990  Biso   1.000  O
  O41      1.0000 0.44790  0.52430  0.78320  Biso   1.000  O
  O42      1.0000 0.99280  0.98930  0.60200  Biso   1.000  O
  O43      1.0000 0.85550  0.82380  0.81830  Biso   1.000  O
  O44      1.0000 0.49600  0.91110  0.87140  Biso   1.000  O
  O45      1.0000 0.16590  0.94690  0.79020  Biso   1.000  O
  O46      1.0000 0.24810  0.59690  0.90150  Biso   1.000  O
  O47      1.0000 0.03640  0.71950  0.60240  Biso   1.000  O
  O48      1.0000 0.18520  0.68000  0.60610  Biso   1.000  O
  O49      1.0000 0.28860  0.94410  0.89390  Biso   1.000  O
  O50      1.0000 0.13220  0.03360  0.59640  Biso   1.000  O
  O51      1.0000 0.98980  0.76390  0.88420  Biso   1.000  O
  O52      1.0000 0.41450  0.64590  0.89870  Biso   1.000  O
  O53      1.0000 0.22880  0.06780  0.84820  Biso   1.000  O
  O54      1.0000 0.49900  0.75560  0.88540  Biso   1.000  O
  O55      1.0000 0.40680  0.71770  0.63050  Biso   1.000  O
  O56      1.0000 0.17690  0.69550  0.81990  Biso   1.000  O
  O57      1.0000 0.89740  0.72630  0.63130  Biso   1.000  O
  O58      1.0000 0.98440  0.89980  0.86600  Biso   1.000  O
  O59      1.0000 0.52540  0.63200  0.84160  Biso   1.000  O
  O60      1.0000 0.03960  0.00390  0.72660  Biso   1.000  O
  O61      1.0000 0.64770  0.94110  0.86080  Biso   1.000  O
  O62      1.0000 0.40080  0.87510  0.61420  Biso   1.000  O
  O63      1.0000 0.04640  0.10920  0.64410  Biso   1.000  O
  O64      1.0000 0.36650  0.63160  0.77040  Biso   1.000  O
  O65      1.0000 0.15410  0.55920  0.65050  Biso   1.000  O
  O66      1.0000 0.12520  0.93080  0.67950  Biso   1.000  O
  O67      1.0000 0.02460  0.80400  0.69460  Biso   1.000  O
  O68      1.0000 0.30560  0.98120  0.60110  Biso   1.000  O
  O69      1.0000 0.33860  0.89990  0.79770  Biso   1.000  O
  O70      1.0000 0.13420  0.67720  0.70980  Biso   1.000  O
  O71      1.0000 0.34280  0.74410  0.81460  Biso   1.000  O
  O72      1.0000 0.39130  0.83850  0.90720  Biso   1.000  O
  O73      1.0000 0.27160  0.79020  0.59730  Biso   1.000  O
  O74      1.0000 0.05610  0.62040  0.77180  Biso   1.000  O
  O75      1.0000 0.14250  0.90600  0.89840  Biso   1.000  O
  O76      1.0000 0.19790  0.58140  0.77690  Biso   1.000  O
  O77      1.0000 0.17770  0.04620  0.72350  Biso   1.000  O
  O78      1.0000 0.94340  0.75170  0.75700  Biso   1.000  O
  O79      1.0000 0.35400  0.99810  0.73000  Biso   1.000  O
  O80      1.0000 0.30300  0.72780  0.70400  Biso   1.000  O
  O81      1.0000 0.44480  0.89370  0.74320  Biso   1.000  O
  O82      1.0000 0.94050  0.87510  0.74470  Biso   1.000  O
  O83      1.0000 0.44910  0.73360  0.76130  Biso   1.000  O
  O84      1.0000 0.20800  0.82000  0.78600  Biso   1.000  O
  O85      1.0000 0.18200  0.80900  0.71200  Biso   1.000  O
  W31      1.0000 0.81459  0.99054  0.28907  Biso   1.000  W
  W32      1.0000 0.84128  0.61295  0.35902  Biso   1.000  W
  W33      1.0000 0.49931  0.39862  0.33522  Biso   1.000  W
  W34      1.0000 0.76380  0.01298  0.14209  Biso   1.000  W
  W35      1.0000 0.11288  0.42048  0.18826  Biso   1.000  W
  W36      1.0000 0.43700  0.22769  0.16353  Biso   1.000  W
  W37      1.0000 0.10491  0.22893  0.16487  Biso   1.000  W
  W38      1.0000 0.15759  0.20411  0.31446  Biso   1.000  W
  W39      1.0000 0.57877  0.57654  0.20464  Biso   1.000  W
  W40      1.0000 0.02329  0.04665  0.29419  Biso   1.000  W
  W41      1.0000 0.55820  0.07382  0.14745  Biso   1.000  W
  W42      1.0000 0.44598  0.42114  0.18529  Biso   1.000  W
  W43      1.0000 0.97123  0.07148  0.14700  Biso   1.000  W
  W44      1.0000 0.16780  0.39768  0.33754  Biso   1.000  W
  W45      1.0000 0.99345  0.57813  0.20659  Biso   1.000  W
  W46      1.0000 0.78912  0.63609  0.21170  Biso   1.000  W
  W47      1.0000 0.79642  0.18080  0.08052  Biso   1.000  W
  W48      1.0000 0.59533  0.24162  0.08658  Biso   1.000  W
  W49      1.0000 0.63133  0.55388  0.35214  Biso   1.000  W
  W50      1.0000 0.49332  0.20656  0.31444  Biso   1.000  W
  W51      1.0000 0.04000  0.29071  0.40315  Biso   1.000  W
  W52      1.0000 0.61049  0.05155  0.29518  Biso   1.000  W
  W53      1.0000 0.70811  0.19622  0.39043  Biso   1.000  W
  W54      1.0000 0.81267  0.49202  0.11617  Biso   1.000  W
  W55      1.0000 0.60674  0.43232  0.10938  Biso   1.000  W
  W56      1.0000 0.04641  0.55499  0.35408  Biso   1.000  W
  W57      1.0000 0.92237  0.44535  0.42051  Biso   1.000  W
  W58      1.0000 0.71414  0.38635  0.41216  Biso   1.000  W
  W59      1.0000 0.91046  0.13492  0.38346  Biso   1.000  W
  W60      1.0000 0.92746  0.33612  0.09774  Biso   1.000  W
  P6       1.0000 0.64470  0.41720  0.26100  Biso   1.000  P
  P7       1.0000 0.63580  0.21020  0.23790  Biso   1.000  P
  P8       1.0000 0.87230  0.48020  0.27030  Biso   1.000  P
  P9       1.0000 0.00330  0.31300  0.24980  Biso   1.000  P
  P10      1.0000 0.85820  0.14510  0.23080  Biso   1.000  P
  Cu5      1.0000 0.23930  0.49010  0.08777  Biso   1.000  Cu
  Cu6      1.0000 0.20930  0.19051  0.04793  Biso   1.000  Cu
  Cu7      1.0000 0.29890  0.19660  0.23980  Biso   1.000  Cu
  Cu8      1.0000 0.30800  0.42780  0.26560  Biso   1.000  Cu
  C28      1.0000 0.33100  0.61260  0.14740  Biso   1.000  C
  H33      1.0000 0.37640  0.60390  0.13480  Biso   1.000  H
  C29      1.0000 0.21700  0.60860  0.16280  Biso   1.000  C
  H34      1.0000 0.16680  0.59300  0.16390  Biso   1.000  H
  C30      1.0000 0.37200  0.71820  0.19540  Biso   1.000  C
  H35      1.0000 0.42600  0.69990  0.20250  Biso   1.000  H
  H36      1.0000 0.36790  0.73560  0.23370  Biso   1.000  H
  C31      1.0000 0.36600  0.78030  0.15330  Biso   1.000  C
  C32      1.0000 0.34800  0.76300  0.08600  Biso   1.000  C
  C33      1.0000 0.37900  0.82200  0.05400  Biso   1.000  C
  C34      1.0000 0.29300  0.79600  0.10300  Biso   1.000  C
  C35      1.0000 0.26700  0.84000  0.04600  Biso   1.000  C
  C36      1.0000 0.33700  0.89060  0.05740  Biso   1.000  C
  C37      1.0000 0.34700  0.93910  0.11150  Biso   1.000  C
  H37      1.0000 0.40150  0.95680  0.12290  Biso   1.000  H
  H38      1.0000 0.33930  0.91340  0.14530  Biso   1.000  H
  C38      1.0000 0.18100  0.05360  0.08940  Biso   1.000  C
  H39      1.0000 0.12810  0.06330  0.08820  Biso   1.000  H
  C39      1.0000 0.30200  0.06420  0.08100  Biso   1.000  C
  H40      1.0000 0.34850  0.08100  0.07380  Biso   1.000  H
  C40      1.0000 0.23000  0.05470  0.24070  Biso   1.000  C
  H41      1.0000 0.17800  0.06920  0.23940  Biso   1.000  H
  C41      1.0000 0.36300  0.04940  0.24970  Biso   1.000  C
  H42      1.0000 0.41690  0.06210  0.25690  Biso   1.000  H
  C42      1.0000 0.20100  0.92910  0.23750  Biso   1.000  C
  H43      1.0000 0.14700  0.94310  0.23650  Biso   1.000  H
  H44      1.0000 0.19910  0.90510  0.20040  Biso   1.000  H
  C43      1.0000 0.23600  0.88200  0.29190  Biso   1.000  C
  H45      1.0000 0.21580  0.89520  0.32550  Biso   1.000  H
  H46      1.0000 0.29390  0.88470  0.30430  Biso   1.000  H
  C44      1.0000 0.20800  0.80900  0.27090  Biso   1.000  C
  H47      1.0000 0.20750  0.80250  0.22920  Biso   1.000  H
  H48      1.0000 0.15480  0.80040  0.27480  Biso   1.000  H
  C45      1.0000 0.27000  0.76030  0.31250  Biso   1.000  C
  H49      1.0000 0.29480  0.73080  0.28890  Biso   1.000  H
  H50      1.0000 0.31200  0.78650  0.34030  Biso   1.000  H
  C46      1.0000 0.22300  0.71800  0.34660  Biso   1.000  C
  H51      1.0000 0.17750  0.69560  0.31850  Biso   1.000  H
  H52      1.0000 0.20240  0.74700  0.37300  Biso   1.000  H
  C47      1.0000 0.28100  0.66420  0.38320  Biso   1.000  C
  H53      1.0000 0.25490  0.63700  0.40750  Biso   1.000  H
  H54      1.0000 0.32780  0.68610  0.40950  Biso   1.000  H
  C48      1.0000 0.38500  0.57110  0.30870  Biso   1.000  C
  H55      1.0000 0.43050  0.55840  0.29790  Biso   1.000  H
  C49      1.0000 0.27000  0.56400  0.31690  Biso   1.000  C
  H56      1.0000 0.21810  0.55150  0.31790  Biso   1.000  H
  C50      1.0000 0.16500  0.39100  0.98700  Biso   1.000  C
  H57      1.0000 0.14120  0.42540  0.96000  Biso   1.000  H
  C51      1.0000 0.22800  0.33960  0.06990  Biso   1.000  C
  H58      1.0000 0.25550  0.33100  0.10980  Biso   1.000  H
  C52      1.0000 0.10900  0.29220  0.92160  Biso   1.000  C
  H59      1.0000 0.13210  0.24790  0.91750  Biso   1.000  H
  H60      1.0000 0.05490  0.28460  0.92490  Biso   1.000  H
  C53      1.0000 0.10500  0.33080  0.87100  Biso   1.000  C
  H61      1.0000 0.15810  0.33540  0.86570  Biso   1.000  H
  H62      1.0000 0.08520  0.37630  0.87620  Biso   1.000  H
  C54      1.0000 0.04900  0.29770  0.81470  Biso   1.000  C
  H63      1.0000 0.99350  0.30770  0.81280  Biso   1.000  H
  H64      1.0000 0.05590  0.24830  0.81660  Biso   1.000  H
  N16      1.0000 0.26260  0.57350  0.13490  Biso   1.000  N
  N17      1.0000 0.32000  0.66430  0.18030  Biso   1.000  N
  N18      1.0000 0.24700  0.66610  0.18860  Biso   1.000  N
  N19      1.0000 0.23150  0.09930  0.07710  Biso   1.000  N
  N20      1.0000 0.21600  0.99200  0.10360  Biso   1.000  N
  N21      1.0000 0.28800  0.99960  0.09760  Biso   1.000  N
  N22      1.0000 0.29400  0.09370  0.23920  Biso   1.000  N
  N23      1.0000 0.25700  0.99260  0.24450  Biso   1.000  N
  N24      1.0000 0.33300  0.98610  0.24660  Biso   1.000  N
  N25      1.0000 0.31400  0.52830  0.29670  Biso   1.000  N
  N26      1.0000 0.30400  0.61930  0.33620  Biso   1.000  N
  N27      1.0000 0.37900  0.62790  0.33520  Biso   1.000  N
  N28      1.0000 0.21270  0.40150  0.04430  Biso   1.000  N
  N29      1.0000 0.19600  0.29030  0.02670  Biso   1.000  N
  N30      1.0000 0.15660  0.32550  0.97620  Biso   1.000  N
  Na3      1.0000 0.82860  0.30410  0.31970  Biso   1.000  Na
  Na4      1.0000 0.77610  0.32440  0.18150  Biso   1.000  Na
  O86      1.0000 0.47520  0.30310  0.31710  Biso   1.000  O
  O87      1.0000 0.90340  0.62990  0.21390  Biso   1.000  O
  O88      1.0000 0.41020  0.20360  0.23750  Biso   1.000  O
  O89      1.0000 0.68210  0.61980  0.21640  Biso   1.000  O
  O90      1.0000 0.41900  0.42180  0.26570  Biso   1.000  O
  O91      1.0000 0.42840  0.32500  0.18450  Biso   1.000  O
  O92      1.0000 0.11780  0.48560  0.33840  Biso   1.000  O
  O93      1.0000 0.52870  0.11500  0.29920  Biso   1.000  O
  O94      1.0000 0.82470  0.40310  0.41870  Biso   1.000  O
  O95      1.0000 0.05470  0.14160  0.16260  Biso   1.000  O
  O96      1.0000 0.87600  0.01530  0.14380  Biso   1.000  O
  O97      1.0000 0.68030  0.11040  0.35540  Biso   1.000  O
  O98      1.0000 0.05520  0.60370  0.28390  Biso   1.000  O
  O99      1.0000 0.19400  0.30230  0.32180  Biso   1.000  O
  O100     1.0000 0.92630  0.99510  0.28610  Biso   1.000  O
  O101     1.0000 0.18750  0.20270  0.23810  Biso   1.000  O
  O102     1.0000 0.91840  0.52690  0.14660  Biso   1.000  O
  O103     1.0000 0.97040  0.36080  0.41440  Biso   1.000  O
  O104     1.0000 0.65540  0.02950  0.14990  Biso   1.000  O
  O105     1.0000 0.93710  0.32200  0.19400  Biso   1.000  O
  O106     1.0000 0.70230  0.22460  0.08200  Biso   1.000  O
  O107     1.0000 0.81500  0.67120  0.29210  Biso   1.000  O
  O108     1.0000 0.90270  0.13700  0.10210  Biso   1.000  O
  O109     1.0000 0.54100  0.49150  0.34110  Biso   1.000  O
  O110     1.0000 0.07190  0.50540  0.20360  Biso   1.000  O
  O111     1.0000 0.99200  0.10060  0.35340  Biso   1.000  O
  O112     1.0000 0.85060  0.26660  0.08390  Biso   1.000  O
  O113     1.0000 0.78630  0.95280  0.20820  Biso   1.000  O
  O114     1.0000 0.16390  0.21160  0.11790  Biso   1.000  O
  O115     1.0000 0.03180  0.02280  0.21720  Biso   1.000  O
  O116     1.0000 0.10800  0.36140  0.38590  Biso   1.000  O
  O117     1.0000 0.19510  0.42200  0.26320  Biso   1.000  O
  O118     1.0000 0.70620  0.00990  0.28370  Biso   1.000  O
  O119     1.0000 0.73010  0.59710  0.35260  Biso   1.000  O
  O120     1.0000 0.60250  0.52070  0.14530  Biso   1.000  O
  O121     1.0000 0.17250  0.45190  0.14440  Biso   1.000  O
  O122     1.0000 0.57550  0.60280  0.28240  Biso   1.000  O
  O123     1.0000 0.10450  0.11980  0.29820  Biso   1.000  O
  O124     1.0000 0.70190  0.38260  0.31430  Biso   1.000  O
  O125     1.0000 0.49210  0.51500  0.20010  Biso   1.000  O
  O126     1.0000 0.55210  0.02430  0.21680  Biso   1.000  O
  O127     1.0000 0.00720  0.48930  0.39800  Biso   1.000  O
  O128     1.0000 0.14450  0.32380  0.18170  Biso   1.000  O
  O129     1.0000 0.50400  0.41110  0.12860  Biso   1.000  O
  O130     1.0000 0.83410  0.44690  0.20980  Biso   1.000  O
  O131     1.0000 0.75190  0.09690  0.09850  Biso   1.000  O
  O132     1.0000 0.96360  0.21950  0.39760  Biso   1.000  O
  O133     1.0000 0.81480  0.18000  0.39390  Biso   1.000  O
  O134     1.0000 0.71140  0.44410  0.10610  Biso   1.000  O
  O135     1.0000 0.86780  0.53360  0.40360  Biso   1.000  O
  O136     1.0000 0.01020  0.26390  0.11580  Biso   1.000  O
  O137     1.0000 0.58550  0.14590  0.10130  Biso   1.000  O
  O138     1.0000 0.77120  0.56780  0.15180  Biso   1.000  O
  O139     1.0000 0.50100  0.25560  0.11460  Biso   1.000  O
  O140     1.0000 0.59320  0.21770  0.36950  Biso   1.000  O
  O141     1.0000 0.82310  0.19550  0.18010  Biso   1.000  O
  O142     1.0000 0.10260  0.22630  0.36870  Biso   1.000  O
  O143     1.0000 0.01560  0.39980  0.13400  Biso   1.000  O
  O144     1.0000 0.47460  0.13200  0.15840  Biso   1.000  O
  O145     1.0000 0.96040  0.50390  0.27340  Biso   1.000  O
  O146     1.0000 0.35230  0.44110  0.13920  Biso   1.000  O
  O147     1.0000 0.59920  0.37510  0.38580  Biso   1.000  O
  O148     1.0000 0.95360  0.60920  0.35590  Biso   1.000  O
  O149     1.0000 0.63350  0.13160  0.22960  Biso   1.000  O
  O150     1.0000 0.84590  0.05920  0.34950  Biso   1.000  O
  O151     1.0000 0.87480  0.43080  0.32050  Biso   1.000  O
  O152     1.0000 0.97540  0.30400  0.30540  Biso   1.000  O
  O153     1.0000 0.69440  0.48120  0.39890  Biso   1.000  O
  O154     1.0000 0.66140  0.39990  0.20230  Biso   1.000  O
  O155     1.0000 0.86580  0.17720  0.29020  Biso   1.000  O
  O156     1.0000 0.65720  0.24410  0.18540  Biso   1.000  O
  O157     1.0000 0.60870  0.33850  0.09280  Biso   1.000  O
  O158     1.0000 0.72840  0.29020  0.40270  Biso   1.000  O
  O159     1.0000 0.94390  0.12040  0.22820  Biso   1.000  O
  O160     1.0000 0.85750  0.40600  0.10160  Biso   1.000  O
  O161     1.0000 0.80210  0.08140  0.22310  Biso   1.000  O
  O162     1.0000 0.82230  0.54620  0.27650  Biso   1.000  O
  O163     1.0000 0.05660  0.25170  0.24300  Biso   1.000  O
  O164     1.0000 0.64600  0.49810  0.27000  Biso   1.000  O
  O165     1.0000 0.69700  0.22780  0.29600  Biso   1.000  O
  O166     1.0000 0.55520  0.39370  0.25680  Biso   1.000  O
  O167     1.0000 0.05950  0.37510  0.25530  Biso   1.000  O
  O168     1.0000 0.55090  0.23360  0.23870  Biso   1.000  O
  O169     1.0000 0.79200  0.32000  0.21400  Biso   1.000  O
  O170     1.0000 0.81800  0.30900  0.28800  Biso   1.000  O
