data_image0
_cell_length_a       5.8405
_cell_length_b       11.3516
_cell_length_c       13.8972
_cell_angle_alpha    103.199
_cell_angle_beta     98.623
_cell_angle_gamma    95.441

_symmetry_space_group_name_H-M    "P 1"
_symmetry_int_tables_number       1

loop_
  _symmetry_equiv_pos_as_xyz
  'x, y, z'

loop_
  _atom_site_label
  _atom_site_occupancy
  _atom_site_fract_x
  _atom_site_fract_y
  _atom_site_fract_z
  _atom_site_thermal_displace_type
  _atom_site_B_iso_or_equiv
  _atom_site_type_symbol
  C1       1.0000 0.18050  0.20480  0.83100  Biso   1.000  C
  H1       1.0000 0.28600  0.16130  0.79860  Biso   1.000  H
  C2       1.0000 0.21050  0.22930  0.93450  Biso   1.000  C
  H2       1.0000 0.33810  0.20620  0.97100  Biso   1.000  H
  C3       1.0000 0.04830  0.28870  0.98340  Biso   1.000  C
  C4       1.0000 0.87020  0.32860  0.92570  Biso   1.000  C
  H3       1.0000 0.76210  0.37190  0.95630  Biso   1.000  H
  C5       1.0000 0.85450  0.30380  0.82330  Biso   1.000  C
  H4       1.0000 0.73490  0.33130  0.78570  Biso   1.000  H
  C6       1.0000 0.78240  0.42120  0.58490  Biso   1.000  C
  H5       1.0000 0.64810  0.36980  0.54950  Biso   1.000  H
  C7       1.0000 0.79180  0.54540  0.59220  Biso   1.000  C
  H6       1.0000 0.66660  0.57690  0.56200  Biso   1.000  H
  C8       1.0000 0.99150  0.62130  0.64540  Biso   1.000  C
  H7       1.0000 0.00260  0.70490  0.65080  Biso   1.000  H
  C9       1.0000 0.17580  0.57250  0.69080  Biso   1.000  C
  C10      1.0000 0.15450  0.44650  0.67850  Biso   1.000  C
  H8       1.0000 0.27830  0.41240  0.70680  Biso   1.000  H
  C11      1.0000 0.55670  0.62030  0.80680  Biso   1.000  C
  C12      1.0000 0.94360  0.68990  0.90390  Biso   1.000  C
  H9       1.0000 0.07380  0.74180  0.89270  Biso   1.000  H
  H10      1.0000 0.96620  0.60590  0.87750  Biso   1.000  H
  N1       1.0000 0.00610  0.24090  0.77530  Biso   1.000  N
  N2       1.0000 0.95970  0.37250  0.62680  Biso   1.000  N
  N3       1.0000 0.37610  0.65090  0.74440  Biso   1.000  N
  H11      1.0000 0.38830  0.72480  0.73800  Biso   1.000  H
  N4       1.0000 0.73240  0.71280  0.84760  Biso   1.000  N
  H12      1.0000 0.71780  0.78500  0.84000  Biso   1.000  H
  O1       1.0000 0.56040  0.51980  0.82430  Biso   1.000  O
  Cu1      1.0000 0.95487  0.19580  0.62651  Biso   1.000  Cu
  C13      1.0000 0.81950  0.79520  0.16900  Biso   1.000  C
  H13      1.0000 0.71400  0.83870  0.20140  Biso   1.000  H
  C14      1.0000 0.78950  0.77070  0.06550  Biso   1.000  C
  H14      1.0000 0.66190  0.79380  0.02900  Biso   1.000  H
  C15      1.0000 0.95170  0.71130  0.01660  Biso   1.000  C
  C16      1.0000 0.12980  0.67140  0.07430  Biso   1.000  C
  H15      1.0000 0.23790  0.62810  0.04370  Biso   1.000  H
  C17      1.0000 0.14550  0.69620  0.17670  Biso   1.000  C
  H16      1.0000 0.26510  0.66870  0.21430  Biso   1.000  H
  C18      1.0000 0.21760  0.57880  0.41510  Biso   1.000  C
  H17      1.0000 0.35190  0.63020  0.45050  Biso   1.000  H
  C19      1.0000 0.20820  0.45460  0.40780  Biso   1.000  C
  H18      1.0000 0.33340  0.42310  0.43800  Biso   1.000  H
  C20      1.0000 0.00850  0.37870  0.35460  Biso   1.000  C
  H19      1.0000 0.99740  0.29510  0.34920  Biso   1.000  H
  C21      1.0000 0.82420  0.42750  0.30920  Biso   1.000  C
  C22      1.0000 0.84550  0.55350  0.32150  Biso   1.000  C
  H20      1.0000 0.72170  0.58760  0.29320  Biso   1.000  H
  C23      1.0000 0.44330  0.37970  0.19320  Biso   1.000  C
  C24      1.0000 0.05640  0.31010  0.09610  Biso   1.000  C
  H21      1.0000 0.92620  0.25820  0.10730  Biso   1.000  H
  H22      1.0000 0.03380  0.39410  0.12250  Biso   1.000  H
  N5       1.0000 0.99390  0.75910  0.22470  Biso   1.000  N
  N6       1.0000 0.04030  0.62750  0.37320  Biso   1.000  N
  N7       1.0000 0.62390  0.34910  0.25560  Biso   1.000  N
  H23      1.0000 0.61170  0.27520  0.26200  Biso   1.000  H
  N8       1.0000 0.26760  0.28720  0.15240  Biso   1.000  N
  H24      1.0000 0.28220  0.21500  0.16000  Biso   1.000  H
  O2       1.0000 0.43960  0.48020  0.17570  Biso   1.000  O
  Cu2      1.0000 0.04513  0.80420  0.37349  Biso   1.000  Cu
