data_image0
_cell_length_a       10.6923
_cell_length_b       18.911
_cell_length_c       14.91
_cell_angle_alpha    90
_cell_angle_beta     91.852
_cell_angle_gamma    90

_symmetry_space_group_name_H-M    "P 1"
_symmetry_int_tables_number       1

loop_
  _symmetry_equiv_pos_as_xyz
  'x, y, z'

loop_
  _atom_site_label
  _atom_site_occupancy
  _atom_site_fract_x
  _atom_site_fract_y
  _atom_site_fract_z
  _atom_site_thermal_displace_type
  _atom_site_B_iso_or_equiv
  _atom_site_type_symbol
  C1       1.0000 0.77800  0.19570  0.85918  Biso   1.000  C
  H1       1.0000 0.84550  0.16500  0.86620  Biso   1.000  H
  C2       1.0000 0.66580  0.17776  0.89515  Biso   1.000  C
  H2       1.0000 0.65740  0.13500  0.92520  Biso   1.000  H
  C3       1.0000 0.56590  0.22325  0.88663  Biso   1.000  C
  H3       1.0000 0.48950  0.21180  0.91100  Biso   1.000  H
  C4       1.0000 0.58050  0.28673  0.84102  Biso   1.000  C
  C5       1.0000 0.69586  0.30088  0.80496  Biso   1.000  C
  H4       1.0000 0.70640  0.34270  0.77330  Biso   1.000  H
  C6       1.0000 0.47126  0.39844  0.80010  Biso   1.000  C
  C7       1.0000 0.33450  0.50026  0.77369  Biso   1.000  C
  H5       1.0000 0.24610  0.51050  0.77870  Biso   1.000  H
  H6       1.0000 0.35240  0.49870  0.71040  Biso   1.000  H
  C8       1.0000 0.40939  0.55943  0.81732  Biso   1.000  C
  C9       1.0000 0.45760  0.55539  0.90374  Biso   1.000  C
  H7       1.0000 0.44440  0.51510  0.93800  Biso   1.000  H
  C10      1.0000 0.52560  0.61125  0.93959  Biso   1.000  C
  H8       1.0000 0.56060  0.60840  0.99740  Biso   1.000  H
  C11      1.0000 0.54090  0.67070  0.88908  Biso   1.000  C
  H9       1.0000 0.58500  0.70870  0.91400  Biso   1.000  H
  C12      1.0000 0.43115  0.62103  0.77111  Biso   1.000  C
  H10      1.0000 0.39970  0.62460  0.71240  Biso   1.000  H
  C13      1.0000 0.91860  0.38539  0.93526  Biso   1.000  C
  H11      1.0000 0.93260  0.34190  0.96290  Biso   1.000  H
  C14      1.0000 0.86510  0.43884  0.98358  Biso   1.000  C
  H12      1.0000 0.84380  0.43150  0.04280  Biso   1.000  H
  C15      1.0000 0.84350  0.50341  0.94305  Biso   1.000  C
  H13      1.0000 0.80750  0.54010  0.97470  Biso   1.000  H
  C16      1.0000 0.87579  0.51311  0.85475  Biso   1.000  C
  C17      1.0000 0.92980  0.45681  0.81213  Biso   1.000  C
  H14      1.0000 0.95300  0.46310  0.75310  Biso   1.000  H
  N1       1.0000 0.89716  0.64408  0.84718  Biso   1.000  N
  H15      1.0000 0.85070  0.66620  0.88390  Biso   1.000  H
  C18      1.0000 0.17420  0.37494  0.64595  Biso   1.000  C
  H16      1.0000 0.10890  0.40730  0.64940  Biso   1.000  H
  C19      1.0000 0.27380  0.39095  0.59362  Biso   1.000  C
  H17      1.0000 0.27630  0.43370  0.56280  Biso   1.000  H
  C20      1.0000 0.36960  0.34292  0.58748  Biso   1.000  C
  H18      1.0000 0.43750  0.35280  0.55210  Biso   1.000  H
  C21      1.0000 0.36457  0.27948  0.63439  Biso   1.000  C
  C22      1.0000 0.26178  0.26752  0.68698  Biso   1.000  C
  H19      1.0000 0.25780  0.22570  0.71970  Biso   1.000  H
  C23      1.0000 0.48719  0.16953  0.66789  Biso   1.000  C
  N2       1.0000 0.79263  0.25602  0.81447  Biso   1.000  N
  N3       1.0000 0.47693  0.33174  0.83493  Biso   1.000  N
  H20      1.0000 0.40850  0.31540  0.85560  Biso   1.000  H
  N4       1.0000 0.36047  0.43137  0.81279  Biso   1.000  N
  H21      1.0000 0.30490  0.41110  0.84440  Biso   1.000  H
  N5       1.0000 0.95125  0.39356  0.84998  Biso   1.000  N
  N6       1.0000 0.16773  0.31453  0.69211  Biso   1.000  N
  N7       1.0000 0.46549  0.23341  0.62720  Biso   1.000  N
  H22      1.0000 0.52270  0.24720  0.59190  Biso   1.000  H
  N8       1.0000 0.49490  0.67614  0.80563  Biso   1.000  N
  C24      1.0000 0.84900  0.58080  0.80362  Biso   1.000  C
  H23      1.0000 0.88480  0.57710  0.74490  Biso   1.000  H
  H24      1.0000 0.75910  0.58560  0.79470  Biso   1.000  H
  O1       1.0000 0.41057  0.13852  0.71277  Biso   1.000  O
  O2       1.0000 0.55769  0.42706  0.76234  Biso   1.000  O
  Cd1      1.0000 0.99051  0.28736  0.76953  Biso   1.000  Cd
  C25      1.0000 0.72200  0.69570  0.64082  Biso   1.000  C
  H25      1.0000 0.65450  0.66500  0.63380  Biso   1.000  H
  C26      1.0000 0.83420  0.67776  0.60485  Biso   1.000  C
  H26      1.0000 0.84260  0.63500  0.57480  Biso   1.000  H
  C27      1.0000 0.93410  0.72325  0.61337  Biso   1.000  C
  H27      1.0000 0.01050  0.71180  0.58900  Biso   1.000  H
  C28      1.0000 0.91950  0.78673  0.65898  Biso   1.000  C
  C29      1.0000 0.80414  0.80088  0.69504  Biso   1.000  C
  H28      1.0000 0.79360  0.84270  0.72670  Biso   1.000  H
  C30      1.0000 0.02874  0.89844  0.69990  Biso   1.000  C
  C31      1.0000 0.16550  0.00026  0.72631  Biso   1.000  C
  H29      1.0000 0.25390  0.01050  0.72130  Biso   1.000  H
  H30      1.0000 0.14760  0.99870  0.78960  Biso   1.000  H
  C32      1.0000 0.09061  0.05943  0.68268  Biso   1.000  C
  C33      1.0000 0.04240  0.05539  0.59626  Biso   1.000  C
  H31      1.0000 0.05560  0.01510  0.56200  Biso   1.000  H
  C34      1.0000 0.97440  0.11125  0.56041  Biso   1.000  C
  H32      1.0000 0.93940  0.10840  0.50260  Biso   1.000  H
  C35      1.0000 0.95910  0.17070  0.61092  Biso   1.000  C
  H33      1.0000 0.91500  0.20870  0.58600  Biso   1.000  H
  C36      1.0000 0.06885  0.12103  0.72889  Biso   1.000  C
  H34      1.0000 0.10030  0.12460  0.78760  Biso   1.000  H
  C37      1.0000 0.58140  0.88539  0.56474  Biso   1.000  C
  H35      1.0000 0.56740  0.84190  0.53710  Biso   1.000  H
  C38      1.0000 0.63490  0.93884  0.51642  Biso   1.000  C
  H36      1.0000 0.65620  0.93150  0.45720  Biso   1.000  H
  C39      1.0000 0.65650  0.00341  0.55695  Biso   1.000  C
  H37      1.0000 0.69250  0.04010  0.52530  Biso   1.000  H
  C40      1.0000 0.62421  0.01311  0.64525  Biso   1.000  C
  C41      1.0000 0.57020  0.95681  0.68787  Biso   1.000  C
  H38      1.0000 0.54700  0.96310  0.74690  Biso   1.000  H
  N9       1.0000 0.60284  0.14408  0.65282  Biso   1.000  N
  H39      1.0000 0.64930  0.16620  0.61610  Biso   1.000  H
  C42      1.0000 0.32580  0.87494  0.85405  Biso   1.000  C
  H40      1.0000 0.39110  0.90730  0.85060  Biso   1.000  H
  C43      1.0000 0.22620  0.89095  0.90638  Biso   1.000  C
  H41      1.0000 0.22370  0.93370  0.93720  Biso   1.000  H
  C44      1.0000 0.13040  0.84292  0.91252  Biso   1.000  C
  H42      1.0000 0.06250  0.85280  0.94790  Biso   1.000  H
  C45      1.0000 0.13543  0.77948  0.86561  Biso   1.000  C
  C46      1.0000 0.23822  0.76752  0.81302  Biso   1.000  C
  H43      1.0000 0.24220  0.72570  0.78030  Biso   1.000  H
  C47      1.0000 0.01281  0.66953  0.83211  Biso   1.000  C
  N10      1.0000 0.70737  0.75602  0.68553  Biso   1.000  N
  N11      1.0000 0.02307  0.83174  0.66507  Biso   1.000  N
  H44      1.0000 0.09150  0.81540  0.64440  Biso   1.000  H
  N12      1.0000 0.13953  0.93137  0.68721  Biso   1.000  N
  H45      1.0000 0.19510  0.91110  0.65560  Biso   1.000  H
  N13      1.0000 0.54875  0.89356  0.65002  Biso   1.000  N
  N14      1.0000 0.33227  0.81453  0.80789  Biso   1.000  N
  N15      1.0000 0.03451  0.73341  0.87280  Biso   1.000  N
  H46      1.0000 0.97730  0.74720  0.90810  Biso   1.000  H
  N16      1.0000 0.00510  0.17614  0.69437  Biso   1.000  N
  C48      1.0000 0.65100  0.08080  0.69638  Biso   1.000  C
  H47      1.0000 0.61520  0.07710  0.75510  Biso   1.000  H
  H48      1.0000 0.74090  0.08560  0.70530  Biso   1.000  H
  O3       1.0000 0.08943  0.63852  0.78723  Biso   1.000  O
  O4       1.0000 0.94231  0.92706  0.73766  Biso   1.000  O
  Cd2      1.0000 0.50949  0.78736  0.73047  Biso   1.000  Cd
  C49      1.0000 0.22200  0.80430  0.14082  Biso   1.000  C
  H49      1.0000 0.15450  0.83500  0.13380  Biso   1.000  H
  C50      1.0000 0.33420  0.82224  0.10485  Biso   1.000  C
  H50      1.0000 0.34260  0.86500  0.07480  Biso   1.000  H
  C51      1.0000 0.43410  0.77675  0.11337  Biso   1.000  C
  H51      1.0000 0.51050  0.78820  0.08900  Biso   1.000  H
  C52      1.0000 0.41950  0.71327  0.15898  Biso   1.000  C
  C53      1.0000 0.30414  0.69912  0.19504  Biso   1.000  C
  H52      1.0000 0.29360  0.65730  0.22670  Biso   1.000  H
  C54      1.0000 0.52874  0.60156  0.19990  Biso   1.000  C
  C55      1.0000 0.66550  0.49974  0.22631  Biso   1.000  C
  H53      1.0000 0.75390  0.48950  0.22130  Biso   1.000  H
  H54      1.0000 0.64760  0.50130  0.28960  Biso   1.000  H
  C56      1.0000 0.59061  0.44057  0.18268  Biso   1.000  C
  C57      1.0000 0.54240  0.44461  0.09626  Biso   1.000  C
  H55      1.0000 0.55560  0.48490  0.06200  Biso   1.000  H
  C58      1.0000 0.47440  0.38875  0.06041  Biso   1.000  C
  H56      1.0000 0.43940  0.39160  0.00260  Biso   1.000  H
  C59      1.0000 0.45910  0.32930  0.11092  Biso   1.000  C
  H57      1.0000 0.41500  0.29130  0.08600  Biso   1.000  H
  C60      1.0000 0.56885  0.37897  0.22889  Biso   1.000  C
  H58      1.0000 0.60030  0.37540  0.28760  Biso   1.000  H
  C61      1.0000 0.08140  0.61461  0.06474  Biso   1.000  C
  H59      1.0000 0.06740  0.65810  0.03710  Biso   1.000  H
  C62      1.0000 0.13490  0.56116  0.01642  Biso   1.000  C
  H60      1.0000 0.15620  0.56850  0.95720  Biso   1.000  H
  C63      1.0000 0.15650  0.49659  0.05695  Biso   1.000  C
  H61      1.0000 0.19250  0.45990  0.02530  Biso   1.000  H
  C64      1.0000 0.12421  0.48689  0.14525  Biso   1.000  C
  C65      1.0000 0.07020  0.54319  0.18787  Biso   1.000  C
  H62      1.0000 0.04700  0.53690  0.24690  Biso   1.000  H
  N17      1.0000 0.10284  0.35592  0.15282  Biso   1.000  N
  H63      1.0000 0.14930  0.33380  0.11610  Biso   1.000  H
  C66      1.0000 0.82580  0.62506  0.35405  Biso   1.000  C
  H64      1.0000 0.89110  0.59270  0.35060  Biso   1.000  H
  C67      1.0000 0.72620  0.60905  0.40638  Biso   1.000  C
  H65      1.0000 0.72370  0.56630  0.43720  Biso   1.000  H
  C68      1.0000 0.63040  0.65708  0.41252  Biso   1.000  C
  H66      1.0000 0.56250  0.64720  0.44790  Biso   1.000  H
  C69      1.0000 0.63543  0.72052  0.36561  Biso   1.000  C
  C70      1.0000 0.73822  0.73248  0.31302  Biso   1.000  C
  H67      1.0000 0.74220  0.77430  0.28030  Biso   1.000  H
  C71      1.0000 0.51281  0.83047  0.33211  Biso   1.000  C
  N18      1.0000 0.20737  0.74398  0.18553  Biso   1.000  N
  N19      1.0000 0.52307  0.66826  0.16507  Biso   1.000  N
  H68      1.0000 0.59150  0.68460  0.14440  Biso   1.000  H
  N20      1.0000 0.63953  0.56863  0.18721  Biso   1.000  N
  H69      1.0000 0.69510  0.58890  0.15560  Biso   1.000  H
  N21      1.0000 0.04875  0.60644  0.15002  Biso   1.000  N
  N22      1.0000 0.83227  0.68547  0.30789  Biso   1.000  N
  N23      1.0000 0.53451  0.76659  0.37280  Biso   1.000  N
  H70      1.0000 0.47730  0.75280  0.40810  Biso   1.000  H
  N24      1.0000 0.50510  0.32386  0.19437  Biso   1.000  N
  C72      1.0000 0.15100  0.41920  0.19638  Biso   1.000  C
  H71      1.0000 0.11520  0.42290  0.25510  Biso   1.000  H
  H72      1.0000 0.24090  0.41440  0.20530  Biso   1.000  H
  O5       1.0000 0.58943  0.86148  0.28723  Biso   1.000  O
  O6       1.0000 0.44231  0.57294  0.23766  Biso   1.000  O
  Cd3      1.0000 0.00949  0.71264  0.23047  Biso   1.000  Cd
  C73      1.0000 0.27800  0.30430  0.35918  Biso   1.000  C
  H73      1.0000 0.34550  0.33500  0.36620  Biso   1.000  H
  C74      1.0000 0.16580  0.32224  0.39515  Biso   1.000  C
  H74      1.0000 0.15740  0.36500  0.42520  Biso   1.000  H
  C75      1.0000 0.06590  0.27675  0.38663  Biso   1.000  C
  H75      1.0000 0.98950  0.28820  0.41100  Biso   1.000  H
  C76      1.0000 0.08050  0.21327  0.34102  Biso   1.000  C
  C77      1.0000 0.19586  0.19912  0.30496  Biso   1.000  C
  H76      1.0000 0.20640  0.15730  0.27330  Biso   1.000  H
  C78      1.0000 0.97126  0.10156  0.30010  Biso   1.000  C
  C79      1.0000 0.83450  0.99974  0.27369  Biso   1.000  C
  H77      1.0000 0.74610  0.98950  0.27870  Biso   1.000  H
  H78      1.0000 0.85240  0.00130  0.21040  Biso   1.000  H
  C80      1.0000 0.90939  0.94057  0.31732  Biso   1.000  C
  C81      1.0000 0.95760  0.94461  0.40374  Biso   1.000  C
  H79      1.0000 0.94440  0.98490  0.43800  Biso   1.000  H
  C82      1.0000 0.02560  0.88875  0.43959  Biso   1.000  C
  H80      1.0000 0.06060  0.89160  0.49740  Biso   1.000  H
  C83      1.0000 0.04090  0.82930  0.38908  Biso   1.000  C
  H81      1.0000 0.08500  0.79130  0.41400  Biso   1.000  H
  C84      1.0000 0.93115  0.87897  0.27111  Biso   1.000  C
  H82      1.0000 0.89970  0.87540  0.21240  Biso   1.000  H
  C85      1.0000 0.41860  0.11461  0.43526  Biso   1.000  C
  H83      1.0000 0.43260  0.15810  0.46290  Biso   1.000  H
  C86      1.0000 0.36510  0.06116  0.48358  Biso   1.000  C
  H84      1.0000 0.34380  0.06850  0.54280  Biso   1.000  H
  C87      1.0000 0.34350  0.99659  0.44305  Biso   1.000  C
  H85      1.0000 0.30750  0.95990  0.47470  Biso   1.000  H
  C88      1.0000 0.37579  0.98689  0.35475  Biso   1.000  C
  C89      1.0000 0.42980  0.04319  0.31213  Biso   1.000  C
  H86      1.0000 0.45300  0.03690  0.25310  Biso   1.000  H
  N25      1.0000 0.39716  0.85592  0.34718  Biso   1.000  N
  H87      1.0000 0.35070  0.83380  0.38390  Biso   1.000  H
  C90      1.0000 0.67420  0.12506  0.14595  Biso   1.000  C
  H88      1.0000 0.60890  0.09270  0.14940  Biso   1.000  H
  C91      1.0000 0.77380  0.10905  0.09362  Biso   1.000  C
  H89      1.0000 0.77630  0.06630  0.06280  Biso   1.000  H
  C92      1.0000 0.86960  0.15708  0.08748  Biso   1.000  C
  H90      1.0000 0.93750  0.14720  0.05210  Biso   1.000  H
  C93      1.0000 0.86457  0.22052  0.13439  Biso   1.000  C
  C94      1.0000 0.76178  0.23248  0.18698  Biso   1.000  C
  H91      1.0000 0.75780  0.27430  0.21970  Biso   1.000  H
  C95      1.0000 0.98719  0.33047  0.16789  Biso   1.000  C
  N26      1.0000 0.29263  0.24398  0.31447  Biso   1.000  N
  N27      1.0000 0.97693  0.16826  0.33493  Biso   1.000  N
  H92      1.0000 0.90850  0.18460  0.35560  Biso   1.000  H
  N28      1.0000 0.86047  0.06863  0.31279  Biso   1.000  N
  H93      1.0000 0.80490  0.08890  0.34440  Biso   1.000  H
  N29      1.0000 0.45125  0.10644  0.34998  Biso   1.000  N
  N30      1.0000 0.66773  0.18547  0.19211  Biso   1.000  N
  N31      1.0000 0.96549  0.26659  0.12720  Biso   1.000  N
  H94      1.0000 0.02270  0.25280  0.09190  Biso   1.000  H
  N32      1.0000 0.99490  0.82386  0.30563  Biso   1.000  N
  C96      1.0000 0.34900  0.91920  0.30362  Biso   1.000  C
  H95      1.0000 0.38480  0.92290  0.24490  Biso   1.000  H
  H96      1.0000 0.25910  0.91440  0.29470  Biso   1.000  H
  O7       1.0000 0.91057  0.36148  0.21277  Biso   1.000  O
  O8       1.0000 0.05769  0.07294  0.26234  Biso   1.000  O
  Cd4      1.0000 0.49051  0.21264  0.26953  Biso   1.000  Cd
